/*--------------------------------*- C++ -*----------------------------------*\
  =========                 |
  \\      /  F ield         | OpenFOAM: The Open Source CFD Toolbox
   \\    /   O peration     | Website:  https://openfoam.org
    \\  /    A nd           | Version:  7
     \\/     M anipulation  |
\*---------------------------------------------------------------------------*/
FoamFile
{
    version     2.0;
    format      ascii;
    class       volScalarField;
    location    "0";
    object      T;
}
// * * * * * * * * * * * * * * * * * * * * * * * * * * * * * * * * * * * * * //

dimensions      [0 2 -2 0 0 0 0];

internalField   uniform 530400;  // T = 260K = -13.15°C, solid

boundaryField
{
    north
    {
        type            fixedValue;
        value		uniform 970760; // T = 293.15K = 293.15°C, liquid
    }

    ovest
    {
        type            zeroGradient;
    }


    east
    {
        type            zeroGradient;
    }


    south
    {
        type            zeroGradient
    }

    frontAndBack
    {
        type            empty;
    }
}


// ************************************************************************* //
