/*--------------------------------*- C++ -*----------------------------------*\
  =========                 |
  \\      /  F ield         | OpenFOAM: The Open Source CFD Toolbox
   \\    /   O peration     | Website:  https://openfoam.org
    \\  /    A nd           | Version:  7
     \\/     M anipulation  |
\*---------------------------------------------------------------------------*/
FoamFile
{
    version     2.0;
    format      ascii;
    class       volScalarField;
    location    "0";
    object      T;
}
// * * * * * * * * * * * * * * * * * * * * * * * * * * * * * * * * * * * * * //

dimensions      [0 0 0 1 0 0 0];

internalField   uniform -13.15;

boundaryField
{
    north
    {
        type            fixedValue;
        value        20;
    }

    ovest
    {
        type            fixedValue;
        value        20;
    }


    east
    {
        type            fixedValue;
        value        20;
    }


    south
    {
        type            fixedValue;
        value           uniform -13.15;
    }

    frontAndBack
    {
        type            empty;
    }
}


// ************************************************************************* //
