/*--------------------------------*- C++ -*----------------------------------*\
  =========                 |
  \\      /  F ield         | OpenFOAM: The Open Source CFD Toolbox
   \\    /   O peration     | Website:  https://openfoam.org
    \\  /    A nd           | Version:  6
     \\/     M anipulation  |
\*---------------------------------------------------------------------------*/
FoamFile
{
    version     2.0;
    format      ascii;
    class       polyBoundaryMesh;
    location    "constant/polyMesh";
    object      boundary;
}
// * * * * * * * * * * * * * * * * * * * * * * * * * * * * * * * * * * * * * //

5
(
    north
    {
        type            wall;
        inGroups        1(wall);
        nFaces          100;
        startFace       19800;
    }
    east
    {
        type            wall;
        inGroups        1(wall);
        nFaces          100;
        startFace       19900;
    }
    ovest
    {
        type            wall;
        inGroups        1(wall);
        nFaces          100;
        startFace       20000;
    }
    south
    {
        type            wall;
        inGroups        1(wall);
        nFaces          100;
        startFace       20100;
    }
    frontAndBack
    {
        type            empty;
        inGroups        1(empty);
        nFaces          20000;
        startFace       20200;
    }
)

// ************************************************************************* //
