/*--------------------------------*- C++ -*----------------------------------*\
  =========                 |
  \\      /  F ield         | OpenFOAM: The Open Source CFD Toolbox
   \\    /   O peration     | Website:  https://openfoam.org
    \\  /    A nd           | Version:  6
     \\/     M anipulation  |
\*---------------------------------------------------------------------------*/
FoamFile
{
    version     2.0;
    format      ascii;
    class       dictionary;
    object      transportProperties;
}

// * * * * * * * * * * * * * * * * * * * * * * * * * * * * * * * * * * * * * //

transportModel Newtonian;

// Laminar viscosity
nu              [0 2 -1 0 0 0 0] 8e-7;

// Thermal expansion coefficient
beta            [0 0 0 -1 0 0 0] 2.67e-4;

// Reference temperature
TRef            [0 0 0 1 0 0 0] 505;

// Laminar Prandtl number
Pr              [0 0 0 0 0 0 0] 0.02;

// Turbulent Prandtl number
Prt             [0 0 0 0 0 0 0] 0.85;

// ************************************************************************* //
