/*--------------------------------*- C++ -*----------------------------------*\
  =========                 |
  \\      /  F ield         | OpenFOAM: The Open Source CFD Toolbox
   \\    /   O peration     | Website:  https://openfoam.org
    \\  /    A nd           | Version:  6
     \\/     M anipulation  |
\*---------------------------------------------------------------------------*/
FoamFile
{
    version     2.0;
    format      ascii;
    class       volScalarField;
    location    "0";
    object      alphat;
}
// * * * * * * * * * * * * * * * * * * * * * * * * * * * * * * * * * * * * * //

dimensions      [0 2 -1 0 0 0 0];

boundaryField
{
    top
    {
        type calculated;
        value uniform 0;
    }
    side
    {
        type calculated;
        value uniform 0;
    }
    bottom
    {
        type calculated;
        value uniform 0;
    }
};

internalField  uniform 0;




// ************************************************************************* //
