/*--------------------------------*- C++ -*----------------------------------*\
  =========                 |
  \\      /  F ield         | OpenFOAM: The Open Source CFD Toolbox
   \\    /   O peration     | Website:  https://openfoam.org
    \\  /    A nd           | Version:  6
     \\/     M anipulation  |
\*---------------------------------------------------------------------------*/
FoamFile
{
    version     2.0;
    format      ascii;
    class       dictionary;
    object      controlDict;
}
// * * * * * * * * * * * * * * * * * * * * * * * * * * * * * * * * * * * * * //

application     meltingTConduction;

startFrom       latestTime;

startTime       0;

stopAt          endTime;

endTime         10000;

deltaT          0.1;

writeControl    runTime;

writeInterval   100;

writeFormat     ascii;

writePrecision  6;

writeCompression off;

timeFormat      general;

timePrecision   6;

runTimeModifiable true;

adjustTimeStep  yes;

maxDeltaT       1;

 maxCourant	0.8;

yPlus1
{
    // Mandatory entries (unmodifiable)
    type            yPlus;
    libs            (fieldFunctionObjects);
}


volFieldValue1
{
    // Mandatory entries (unmodifiable)
    type            volFieldValue;
    libs            (fieldFunctionObjects);

    // Mandatory entries (runtime modifiable)
    fields          (g);
    operation       weightedVolAverage;
    regionType      all;
}

// ************************************************************************* //
