/*--------------------------------*- C++ -*----------------------------------*\
  =========                 |
  \\      /  F ield         | OpenFOAM: The Open Source CFD Toolbox
   \\    /   O peration     | Website:  https://openfoam.org
    \\  /    A nd           | Version:  7
     \\/     M anipulation  |
\*---------------------------------------------------------------------------*/
FoamFile
{
    version     2.0;
    format      ascii;
    class       dictionary;
    location    "system";
    object      fvSolution;
}
// * * * * * * * * * * * * * * * * * * * * * * * * * * * * * * * * * * * * * //

solvers
{
    T
    {
        solver          PBiCGStab;
        preconditioner  DIC;
        tolerance       1e-8;
        relTol          0.01;
    }


    TFinal
    {
        $T;
        relTol          0;
    }


    H
    {
        solver          PBiCGStab;
        preconditioner  DIC;
        tolerance       1e-8;
        relTol          0.01;
    }


    HFinal
    {
        $T;
        relTol          0;
    }

}

PIMPLE
{
    nOuterCorrectors         20;
    outerCorrectorResidualControl
    {
     T_star
     {
      tolerance 1e-4;
      relTol 	1e-4;
      }
    }
}

/*
relaxationFactors
{
    fields
    {
        f             0.3;
        cp_mean	      0.99;
        cp_app	      0.99;
        DT            0.99;
    }

}*/

// ************************************************************************* //
