/*--------------------------------*- C++ -*----------------------------------*\
  =========                 |
  \\      /  F ield         | OpenFOAM: The Open Source CFD Toolbox
   \\    /   O peration     | Website:  https://openfoam.org
    \\  /    A nd           | Version:  7
     \\/     M anipulation  |
\*---------------------------------------------------------------------------*/
FoamFile
{
    version     2.0;
    format      ascii;
    class       volScalarField;
    location    "0";
    object      H;
}
// * * * * * * * * * * * * * * * * * * * * * * * * * * * * * * * * * * * * * //

/****** Initialize h boundary conditions according to the temperature ********/

//*************************** enthalpy APPROACH *****************************//
/* step 1.	check if the boundary is liquid, solid or mushy
   step 2.	if solid(i.e., f=0),	H = cp_s*(T-Tm);
		if liquid(i.e., f=1),	H = cp_l*(T-Tm) + rho_l*L + cp_s*Tm;
		if mushy(i.e., 0<f<1),	h = hs*(1-f) + hl*f;
*/
//***************************************************************************//


dimensions      [1 -1 -2 0 0 0 0];

internalField   uniform 5.304e8;  // T = 260K = -13.15°C, solid

boundaryField
{
    inlet
    {
        type            fixedValue;
        value           uniform 9.74946e8; // T = 293.15K = 293.15°C, liquid
    }
    outlet
    {
        type            zeroGradient;
    }

    empty
    {
        type            empty;
    }
}


// ************************************************************************* //
