/*--------------------------------*- C++ -*----------------------------------*\
  =========                 |
  \\      /  F ield         | OpenFOAM: The Open Source CFD Toolbox
   \\    /   O peration     | Website:  https://openfoam.org
    \\  /    A nd           | Version:  7
     \\/     M anipulation  |
\*---------------------------------------------------------------------------*/
FoamFile
{
    version     2.0;
    format      ascii;
    class       volScalarField;
    location    "0";
    object      h;
}
// * * * * * * * * * * * * * * * * * * * * * * * * * * * * * * * * * * * * * //

/****** Initialize h boundary conditions according to the temperature ********/

//*************************** enthalpy APPROACH *****************************//
/* step 1.	check if the boundary is liquid, solid or mushy
   step 2.	if solid(i.e., f=0),	h = hs = cp_s*T;
		if liquid(i.e., f=1),	h = hl = cp_l*T + L - (cp_l-cp_s)*Tm;
		if mushy(i.e., 0<f<1),	h = hs*(1-f) + hl*f;
*/
//***************************************************************************//


dimensions      [0 2 -2 0 0 0 0];

internalField   uniform 530400;  // T = 260K = -13.15°C, solid

boundaryField
{
    inlet
    {
        type            fixedValue;
        value           uniform 974946; // T = 293.15K = 293.15°C, liquid
    }
    outlet
    {
        type            zeroGradient;
    }

    empty
    {
        type            empty;
    }
}


// ************************************************************************* //
